data_generated_by_python

_cell_length_a 12.562141
_cell_length_b 12.562141
_cell_length_c 13.229425
_cell_angle_alpha 90.000000
_cell_angle_beta 90.000000
_cell_angle_gamma 120.000000
_cell_volume 1808.002131

loop_
_atom_site_type_symbol
_atom_site_label
_atom_site_fract_x
_atom_site_fract_y
_atom_site_fract_z
B0 B 0.266667 0.333333 0.145646
B1 B 0.066667 0.533333 0.145646
B2 B 0.066667 0.733333 0.145646
B3 B 0.066667 0.933333 0.145646
B4 B 0.266667 0.133333 0.145646
B5 B 0.866667 0.933333 0.145646
B6 B 0.266667 0.533333 0.145646
B7 B 0.266667 0.733333 0.145646
B8 B 0.266667 0.933333 0.145646
B9 B 0.466667 0.133333 0.145646
B10 B 0.466667 0.333333 0.145646
B11 B 0.066667 0.333333 0.145646
B12 B 0.466667 0.533333 0.145646
B13 B 0.466667 0.933333 0.145646
B14 B 0.666667 0.133333 0.145646
B15 B 0.666667 0.333333 0.145646
B16 B 0.666667 0.533333 0.145646
B17 B 0.666667 0.733333 0.145646
B18 B 0.666667 0.933333 0.145646
B19 B 0.866667 0.133333 0.145646
B20 B 0.866667 0.333333 0.145646
B21 B 0.866667 0.533333 0.145646
B22 B 0.866667 0.733333 0.145646
B23 B 0.466667 0.733333 0.145646
B24 B 0.066667 0.133333 0.145646
C25 C 0.031482 0.121076 0.345646
C26 C 0.284435 0.188855 0.345646
C27 C 0.503498 0.349220 0.345646
C28 C 0.090180 0.340140 0.345646
C29 C 0.469609 0.441807 0.345646
C30 C 0.343132 0.407918 0.345646
C31 C 0.124069 0.247553 0.345646
C32 C 0.309243 0.500505 0.345646
C33 C 0.182767 0.466616 0.345646
C34 C 0.250545 0.281442 0.345646
C35 C 0.410911 0.222744 0.345646
C36 C -0.036297 0.306250 0.345646
C37 C -0.128884 0.179774 0.345646
C38 C -0.094994 0.087187 0.345646
H39 H 0.380090 0.597283 0.345646
H40 H 0.540455 0.538585 0.345646
H41 H 0.600276 0.375152 0.345646
H42 H 0.213588 0.092077 0.345646
H43 H -0.062228 0.377097 0.345646
H44 H 0.156835 0.537462 0.345646
H45 H -0.165841 -0.009591 0.345646
H46 H -0.225661 0.153843 0.345646
H47 H 0.436842 0.151898 0.345646
H48 H 0.057413 0.050230 0.345646
N49 N 0.733333 0.866667 0.145646
N50 N 0.733333 0.666667 0.145646
N51 N 0.733333 0.266667 0.145646
N52 N 0.933333 0.466667 0.145646
N53 N 0.733333 0.466667 0.145646
N54 N 0.933333 0.066667 0.145646
N55 N 0.933333 0.666667 0.145646
N56 N 0.933333 0.266667 0.145646
N57 N 0.533333 0.466667 0.145646
N58 N 0.533333 0.866667 0.145646
N59 N 0.533333 0.666667 0.145646
N60 N 0.133333 0.066667 0.145646
N61 N 0.533333 0.266667 0.145646
N62 N 0.533333 0.066667 0.145646
N63 N 0.333333 0.866667 0.145646
N64 N 0.333333 0.666667 0.145646
N65 N 0.333333 0.466667 0.145646
N66 N 0.333333 0.266667 0.145646
N67 N 0.333333 0.066667 0.145646
N68 N 0.133333 0.866667 0.145646
N69 N 0.133333 0.666667 0.145646
N70 N 0.133333 0.466667 0.145646
N71 N 0.133333 0.266667 0.145646
N72 N 0.733333 0.066667 0.145646
N73 N 0.933333 0.866667 0.145646
